LAMMPS (29 Aug 2024)
# LAMMPS Input Script

# command to run:
# lmp -var F C92x5x5.data -var M CH4.lmp -i input_gas.lammps

# F is file, M is molecule

units real
atom_style full

# create a box first
# include vacuum in the x and y, z should be fixed.
boundary p p f

# no kspace
# Define force field parameters
pair_style lj/charmm/coul/charmm 8.0 10.0 8.0 10.0

bond_style harmonic
angle_style harmonic
dihedral_style opls
improper_style cvff

read_data data/$F
read_data data/C92x5x5.data
Reading data file ...
  orthogonal box = (0 0 -15.176166) to (19.576986 15.176166 91.056996)
  reading atoms ...
  2300 atoms
  scanning bonds ...
  scanning angles ...
  scanning dihedrals ...
  scanning impropers ...
  orthogonal box = (0 0 -15.176166) to (19.576986 15.176166 91.056996)
  reading bonds ...
  2275 bonds
  reading angles ...
  4500 angles
  reading dihedrals ...
  6525 dihedrals
  reading impropers ...
  1500 impropers
Finding 1-2 1-3 1-4 neighbors ...
     4 = max # of 1-2 neighbors
     6 = max # of 1-3 neighbors
    12 = max # of 1-4 neighbors
    16 = max # of special neighbors

# Set up simulation
run_style verlet
neighbor 2.0 bin
neigh_modify delay 0 every 1 check yes

variable z equal (-1*zlo)
variable x equal xhi
variable y equal yhi

# the limits of where we can teleport the gas molecule
variable h equal (zhi)
variable l equal (zhi+(2*zlo))

# Define output
thermo 1000
thermo_style custom step temp etotal pe ke press vol lx ly lz
jump SELF do_freeze
#Freeze bottom region
  region edgeR block 0 $x 0 $y 0 $z
  region edgeR block 0 19.576986 0 $y 0 $z
  region edgeR block 0 19.576986 0 15.176166 0 $z
  region edgeR block 0 19.576986 0 15.176166 0 15.176166
  group edge region edgeR
444 atoms in group edge
  fix 2 edge setforce NULL 0.0 0.0

# Define the Z
  fix zwalls all wall/reflect zlo EDGE zhi EDGE

  # define mobile region
  region mobileR block 0 $x 0 $y $z $h
  region mobileR block 0 19.576986 0 $y $z $h
  region mobileR block 0 19.576986 0 15.176166 $z $h
  region mobileR block 0 19.576986 0 15.176166 15.176166 $h
  region mobileR block 0 19.576986 0 15.176166 15.176166 91.056996

  jump SELF after_logic
print """
FILE = $F
Molecule = $M
"""

FILE = C92x5x5.data
Molecule = CH4.lmp

# define ensemble for mobile region
group mobile region mobileR
1704 atoms in group mobile
fix 1 mobile nvt temp 300.0 300.0 100.0

minimize 0.0 1.0e-8 1000 100000

CITE-CITE-CITE-CITE-CITE-CITE-CITE-CITE-CITE-CITE-CITE-CITE-CITE

Your simulation uses code contributions which should be cited:

- Type Label Framework: https://doi.org/10.1021/acs.jpcb.3c08419

@Article{Gissinger24,
 author = {Jacob R. Gissinger, Ilia Nikiforov, Yaser Afshar, Brendon Waters, Moon-ki Choi, Daniel S. Karls, Alexander Stukowski, Wonpil Im, Hendrik Heinz, Axel Kohlmeyer, and Ellad B. Tadmor},
 title = {Type Label Framework for Bonded Force Fields in LAMMPS},
 journal = {J. Phys. Chem. B},
 year =    2024,
 volume =  128,
 number =  13,
 pages =   {3282â€“-3297}
}

CITE-CITE-CITE-CITE-CITE-CITE-CITE-CITE-CITE-CITE-CITE-CITE-CITE

Generated 1 of 1 mixed pair_coeff terms from arithmetic mixing rule
Step          Temp          TotEng         PotEng         KinEng         Press          Volume           Lx             Ly             Lz
0   0              3430.1645      3430.1645      0             -20907.543      31562.254      19.576986      15.176166      106.23316
Loop time of 4.31825 on 1 procs for 124 steps with 2300 atoms

Minimization stats:
  Stopping criterion = linesearch alpha is zero
  Energy initial, next-to-last, final =
  Force two-norm initial, final = 2320.3382 19.186092
  Force max component initial, final = 142.80609 1.4525266
  Final line search alpha, max atom move = 1.7366133e-11 2.5224771e-11
  Iterations, force evaluations = 124 304

run 100
Generated 1 of 1 mixed pair_coeff terms from arithmetic mixing rule
Step          Temp          TotEng         PotEng         KinEng         Press          Volume           Lx             Ly             Lz
124   0              226.43089      226.43089      0             -3907.1445      31562.254      19.576986      15.176166      106.23316
Loop time of 1.14205 on 1 procs for 100 steps with 2300 atoms

# Define molecule template
molecule CH4mol molecules/$M
molecule CH4mol molecules/CH4.lmp
Read molecule template CH4mol:
LAMMPS data file Created by LigParGen - (Written by Leela S. Dodda)
  1 molecules
  0 fragments
  5 atoms with max type 2
  4 bonds with max type 2
  6 angles with max type 3
  0 dihedrals with max type 0
  2 impropers with max type 1

group methane id > 2300
0 atoms in group methane
dump 1 methane custom 1 methane.xyz id type x y z vx vy vz fx fy fz
dump 2 all xyz 100 Details.xyz

variable i loop 10000
label myfirstloop

variable s equal step
create_atoms 0 random 1 $s mobileR mol CH4mol 55
create_atoms 0 random 1 224 mobileR mol CH4mol 55
Created 5 atoms
group methane id > 2300
5 atoms in group methane

fix 3 methane nvt temp 300.0 300.0 100.0

velocity all create $s 4928459 rot yes dist gaussian
velocity all create 224 4928459 rot yes dist gaussian
minimize 0.0 1.0e-8 1000 10000
Generated 1 of 1 mixed pair_coeff terms from arithmetic mixing rule
Step          Temp          TotEng         PotEng         KinEng         Press          Volume           Lx             Ly             Lz
224   224            1759.2055      220.82135      1538.3841     -1690.8526      31562.254      19.576986      15.176166      106.23316
Loop time of 8.92335 on 1 procs for 276 steps with 2305 atoms

Minimization stats:
  Stopping criterion = linesearch alpha is zero
  Energy initial, next-to-last, final =
  Force two-norm initial, final = 19.728755 10.441404
  Force max component initial, final = 1.5855061 1.4167106
  Final line search alpha, max atom move = 9.0353133e-11 1.2800424e-10
  Iterations, force evaluations = 276 605

print """
The Minimization Stopped at Step = $s
"""

The Minimization Stopped at Step = 500

run 1000
Generated 1 of 1 mixed pair_coeff terms from arithmetic mixing rule
Step          Temp          TotEng         PotEng         KinEng         Press          Volume           Lx             Ly             Lz
500   224            1632.1557      93.771526      1538.3841     -1291.5044      31562.254      19.576986      15.176166      106.23316
Loop time of 11.9358 on 1 procs for 1000 steps with 2305 atoms
